<?xml version="1.0" encoding="UTF-8"?>

<!-- generated on 2024-06-06 16:36:01 by Eclipse SUMO sumo Version v1_15_0+3072-a493b9138de
<configuration xmlns:xsi="http://www.w3.org/2001/XMLSchema-instance" xsi:noNamespaceSchemaLocation="http://sumo.dlr.de/xsd/sumoConfiguration.xsd">

    <input>
        <net-file value="example_scenario/a20.net.xml"/>
        <route-files value="example_scenario/a20.rou.xml"/>
        <additional-files value="example_scenario/a20.add.xml"/>
    </input>

    <time>
        <step-length value="1.0"/>
    </time>

    <traci_server>
        <remote-port value="51594"/>
    </traci_server>

    <random_number>
        <seed value="1"/>
    </random_number>

</configuration>
-->

<e3Detector xmlns:xsi="http://www.w3.org/2001/XMLSchema-instance" xsi:noNamespaceSchemaLocation="http://sumo.dlr.de/xsd/det_e3_file.xsd">
   <interval begin="0.00" end="300.00" id="a13_ramp_queue" meanTravelTime="34.48" meanOverlapTravelTime="35.47" meanSpeed="8.15" meanHaltsPerVehicle="0.00" meanTimeLoss="23.58" vehicleSum="106" meanSpeedWithin="6.23" meanHaltsPerVehicleWithin="0.00" meanDurationWithin="23.79" vehicleSumWithin="17" meanIntervalSpeedWithin="6.23" meanIntervalHaltsPerVehicleWithin="0.00" meanIntervalDurationWithin="23.79" meanTimeLossWithin="16.43"/>
   <interval begin="300.00" end="500.00" id="a13_ramp_queue" meanTravelTime="60.60" meanOverlapTravelTime="62.62" meanSpeed="4.65" meanHaltsPerVehicle="2.15" meanTimeLoss="51.01" vehicleSum="47" meanSpeedWithin="2.14" meanHaltsPerVehicleWithin="4.67" meanDurationWithin="67.20" vehicleSumWithin="27" meanIntervalSpeedWithin="2.14" meanIntervalHaltsPerVehicleWithin="4.67" meanIntervalDurationWithin="67.20" meanTimeLossWithin="59.63"/>
</e3Detector>
