<?xml version="1.0" encoding="UTF-8"?>

<!-- generated on 2024-06-05 14:22:18 by Eclipse SUMO netedit Version v1_15_0+3072-a493b9138de
<configuration xmlns:xsi="http://www.w3.org/2001/XMLSchema-instance" xsi:noNamespaceSchemaLocation="http://sumo.dlr.de/xsd/netconvertConfiguration.xsd">

    <input>
        <sumocfg-file value="/Users/callumevans/Desktop/tud_sumo/tud_sumo/examples/example_scenario/a20.sumocfg"/>
        <additional-files value="/Users/callumevans/Desktop/tud_sumo/tud_sumo/examples/example_scenario/a20.add.xml"/>
        <route-files value="/Users/callumevans/Desktop/tud_sumo/tud_sumo/examples/example_scenario/a20.rou.xml"/>
        <sumo-net-file value="/Users/callumevans/Desktop/tud_sumo/tud_sumo/examples/example_scenario/a20.net.xml"/>
    </input>

    <output>
        <output-file value="/Users/callumevans/Desktop/tud_sumo/tud_sumo/examples/example_scenario/a20.net.xml"/>
        <output.street-names value="true"/>
    </output>

    <processing>
        <geometry.min-radius.fix.railways value="false"/>
        <geometry.max-grade.fix value="false"/>
        <offset.disable-normalization value="true"/>
        <lefthand value="0"/>
    </processing>

    <junctions>
        <no-turnarounds value="true"/>
        <junctions.corner-detail value="5"/>
        <junctions.limit-turn-speed value="5.50"/>
        <rectangular-lane-cut value="0"/>
    </junctions>

    <pedestrian>
        <walkingareas value="0"/>
    </pedestrian>

</configuration>
-->

<net version="1.16" junctionCornerDetail="5" limitTurnSpeed="5.50" xmlns:xsi="http://www.w3.org/2001/XMLSchema-instance" xsi:noNamespaceSchemaLocation="http://sumo.dlr.de/xsd/net_file.xsd">

    <location netOffset="-594487.70,-5753057.16" convBoundary="555.81,321.64,9439.52,3178.93" origBoundary="4.374366,51.919218,4.527265,51.955129" projParameter="+proj=utm +zone=31 +ellps=WGS84 +datum=WGS84 +units=m +no_defs"/>

    <type id="highway.bridleway" priority="1" numLanes="1" speed="2.78" allow="pedestrian" oneway="1" width="2.00"/>
    <type id="highway.bus_guideway" priority="1" numLanes="1" speed="27.78" allow="bus" oneway="1"/>
    <type id="highway.cycleway" priority="1" numLanes="1" speed="5.56" allow="bicycle" oneway="0" width="1.00"/>
    <type id="highway.footway" priority="1" numLanes="1" speed="2.78" allow="pedestrian" oneway="1" width="2.00"/>
    <type id="highway.ford" priority="1" numLanes="1" speed="2.78" allow="army" oneway="0"/>
    <type id="highway.living_street" priority="2" numLanes="1" speed="2.78" disallow="tram rail_urban rail rail_electric rail_fast ship" oneway="0"/>
    <type id="highway.motorway" priority="14" numLanes="2" speed="39.44" allow="private emergency authority army vip passenger hov taxi bus coach delivery truck trailer motorcycle evehicle custom1 custom2" oneway="1"/>
    <type id="highway.motorway_link" priority="9" numLanes="1" speed="22.22" allow="private emergency authority army vip passenger hov taxi bus coach delivery truck trailer motorcycle evehicle custom1 custom2" oneway="1"/>
    <type id="highway.path" priority="1" numLanes="1" speed="5.56" allow="pedestrian bicycle" oneway="0" width="2.00"/>
    <type id="highway.pedestrian" priority="1" numLanes="1" speed="2.78" allow="pedestrian" oneway="1" width="2.00"/>
    <type id="highway.primary" priority="12" numLanes="2" speed="27.78" disallow="tram rail_urban rail rail_electric rail_fast ship" oneway="0"/>
    <type id="highway.primary_link" priority="7" numLanes="1" speed="22.22" disallow="tram rail_urban rail rail_electric rail_fast ship" oneway="0"/>
    <type id="highway.raceway" priority="15" numLanes="2" speed="83.33" allow="vip" oneway="0"/>
    <type id="highway.residential" priority="3" numLanes="1" speed="13.89" disallow="tram rail_urban rail rail_electric rail_fast ship" oneway="0"/>
    <type id="highway.secondary" priority="11" numLanes="1" speed="27.78" disallow="tram rail_urban rail rail_electric rail_fast ship" oneway="0"/>
    <type id="highway.secondary_link" priority="6" numLanes="1" speed="22.22" disallow="tram rail_urban rail rail_electric rail_fast ship" oneway="0"/>
    <type id="highway.service" priority="1" numLanes="1" speed="5.56" allow="pedestrian delivery bicycle" oneway="0"/>
    <type id="highway.stairs" priority="1" numLanes="1" speed="1.39" allow="pedestrian" oneway="1" width="2.00"/>
    <type id="highway.step" priority="1" numLanes="1" speed="1.39" allow="pedestrian" oneway="1" width="2.00"/>
    <type id="highway.steps" priority="1" numLanes="1" speed="1.39" allow="pedestrian" oneway="1" width="2.00"/>
    <type id="highway.tertiary" priority="10" numLanes="1" speed="22.22" disallow="tram rail_urban rail rail_electric rail_fast ship" oneway="0"/>
    <type id="highway.tertiary_link" priority="5" numLanes="1" speed="22.22" disallow="tram rail_urban rail rail_electric rail_fast ship" oneway="0"/>
    <type id="highway.track" priority="1" numLanes="1" speed="5.56" allow="pedestrian motorcycle moped bicycle" oneway="0"/>
    <type id="highway.trunk" priority="13" numLanes="2" speed="27.78" disallow="pedestrian bicycle tram rail_urban rail rail_electric rail_fast ship" oneway="0"/>
    <type id="highway.trunk_link" priority="8" numLanes="1" speed="22.22" disallow="pedestrian bicycle tram rail_urban rail rail_electric rail_fast ship" oneway="0"/>
    <type id="highway.unclassified" priority="4" numLanes="1" speed="13.89" disallow="tram rail_urban rail rail_electric rail_fast ship" oneway="0"/>
    <type id="highway.unsurfaced" priority="1" numLanes="1" speed="8.33" disallow="tram rail_urban rail rail_electric rail_fast ship" oneway="0"/>
    <type id="railway.highspeed" priority="21" numLanes="1" speed="69.44" allow="rail_fast" oneway="1"/>
    <type id="railway.light_rail" priority="19" numLanes="1" speed="27.78" allow="rail_urban" oneway="1"/>
    <type id="railway.preserved" priority="16" numLanes="1" speed="27.78" allow="rail" oneway="1"/>
    <type id="railway.rail" priority="20" numLanes="1" speed="44.44" allow="rail" oneway="1"/>
    <type id="railway.subway" priority="18" numLanes="1" speed="27.78" allow="rail_urban" oneway="1"/>
    <type id="railway.tram" priority="17" numLanes="1" speed="13.89" allow="tram" oneway="1"/>

    <edge id=":11065440855_0" function="internal">
        <lane id=":11065440855_0_0" index="0" allow="private emergency authority army vip passenger hov taxi bus coach delivery truck trailer motorcycle evehicle custom1 custom2" speed="22.22" length="0.30" shape="3926.22,987.43 3925.99,987.27"/>
        <lane id=":11065440855_0_1" index="1" allow="private emergency authority army vip passenger hov taxi bus coach delivery truck trailer motorcycle evehicle custom1 custom2" speed="22.22" length="0.30" shape="3928.05,984.81 3927.81,984.64"/>
        <lane id=":11065440855_0_2" index="2" allow="private emergency authority army vip passenger hov taxi bus coach delivery truck trailer motorcycle evehicle custom1 custom2" speed="22.22" length="0.30" shape="3929.88,982.18 3929.62,982.00"/>
    </edge>
    <edge id=":11065440856_0" function="internal">
        <lane id=":11065440856_0_0" index="0" allow="private emergency authority army vip passenger hov taxi bus coach delivery truck trailer motorcycle evehicle custom1 custom2" speed="22.22" length="0.30" shape="3899.95,969.25 3899.73,969.09"/>
        <lane id=":11065440856_0_1" index="1" allow="private emergency authority army vip passenger hov taxi bus coach delivery truck trailer motorcycle evehicle custom1 custom2" speed="22.22" length="0.30" shape="3901.79,966.63 3901.55,966.46"/>
        <lane id=":11065440856_0_2" index="2" allow="private emergency authority army vip passenger hov taxi bus coach delivery truck trailer motorcycle evehicle custom1 custom2" speed="22.22" length="0.30" shape="3903.63,964.00 3903.36,963.82"/>
    </edge>
    <edge id=":11065440857_0" function="internal">
        <lane id=":11065440857_0_0" index="0" allow="private emergency authority army vip passenger hov taxi bus coach delivery truck trailer motorcycle evehicle custom1 custom2" speed="22.22" length="0.29" shape="3966.70,1015.62 3966.43,1015.43"/>
        <lane id=":11065440857_0_1" index="1" allow="private emergency authority army vip passenger hov taxi bus coach delivery truck trailer motorcycle evehicle custom1 custom2" speed="22.22" length="0.29" shape="3968.50,1012.97 3968.26,1012.81"/>
        <lane id=":11065440857_0_2" index="2" allow="private emergency authority army vip passenger hov taxi bus coach delivery truck trailer motorcycle evehicle custom1 custom2" speed="22.22" length="0.29" shape="3970.30,1010.33 3970.09,1010.18"/>
    </edge>
    <edge id=":11065440858_0" function="internal">
        <lane id=":11065440858_0_0" index="0" allow="private emergency authority army vip passenger hov taxi bus coach delivery truck trailer motorcycle evehicle custom1 custom2" speed="22.22" length="0.30" shape="4068.66,1080.87 4068.42,1080.71"/>
        <lane id=":11065440858_0_1" index="1" allow="private emergency authority army vip passenger hov taxi bus coach delivery truck trailer motorcycle evehicle custom1 custom2" speed="22.22" length="0.30" shape="4070.48,1078.24 4070.23,1078.06"/>
    </edge>
    <edge id=":11065440879_0" function="internal">
        <lane id=":11065440879_0_0" index="0" allow="private emergency authority army vip passenger hov taxi bus coach delivery truck trailer motorcycle evehicle custom1 custom2" speed="22.22" length="0.29" shape="5739.98,2020.35 5739.77,2020.22"/>
        <lane id=":11065440879_0_1" index="1" allow="private emergency authority army vip passenger hov taxi bus coach delivery truck trailer motorcycle evehicle custom1 custom2" speed="22.22" length="0.29" shape="5741.72,2017.67 5741.48,2017.51"/>
        <lane id=":11065440879_0_2" index="2" allow="private emergency authority army vip passenger hov taxi bus coach delivery truck trailer motorcycle evehicle custom1 custom2" speed="22.22" length="0.29" shape="5743.46,2014.99 5743.18,2014.81"/>
    </edge>
    <edge id=":11065440884_0" function="internal">
        <lane id=":11065440884_0_0" index="0" allow="private emergency authority army vip passenger hov taxi bus coach delivery truck trailer motorcycle evehicle custom1 custom2" speed="22.22" length="0.32" shape="6213.16,2294.27 6212.77,2294.13"/>
        <lane id=":11065440884_0_1" index="1" allow="private emergency authority army vip passenger hov taxi bus coach delivery truck trailer motorcycle evehicle custom1 custom2" speed="22.22" length="0.32" shape="6214.25,2291.26 6213.95,2291.15"/>
        <lane id=":11065440884_0_2" index="2" allow="private emergency authority army vip passenger hov taxi bus coach delivery truck trailer motorcycle evehicle custom1 custom2" speed="22.22" length="0.32" shape="6215.34,2288.26 6215.13,2288.18"/>
    </edge>
    <edge id=":11065440888_0" function="internal">
        <lane id=":11065440888_0_0" index="0" allow="private emergency authority army vip passenger hov taxi bus coach delivery truck trailer motorcycle evehicle custom1 custom2" speed="22.22" length="0.30" shape="5579.50,1920.57 5579.24,1920.41"/>
        <lane id=":11065440888_0_1" index="1" allow="private emergency authority army vip passenger hov taxi bus coach delivery truck trailer motorcycle evehicle custom1 custom2" speed="22.22" length="0.30" shape="5581.20,1917.86 5580.94,1917.70"/>
        <lane id=":11065440888_0_2" index="2" allow="private emergency authority army vip passenger hov taxi bus coach delivery truck trailer motorcycle evehicle custom1 custom2" speed="22.22" length="0.30" shape="5582.90,1915.14 5582.64,1914.98"/>
        <lane id=":11065440888_0_3" index="3" allow="private emergency authority army vip passenger hov taxi bus coach delivery truck trailer motorcycle evehicle custom1 custom2" speed="22.22" length="0.30" shape="5584.59,1912.43 5584.34,1912.27"/>
    </edge>
    <edge id=":11065440890_0" function="internal">
        <lane id=":11065440890_0_0" index="0" allow="private emergency authority army vip passenger hov taxi bus coach delivery truck trailer motorcycle evehicle custom1 custom2" speed="22.22" length="0.29" shape="7127.08,2512.65 7126.72,2512.57"/>
        <lane id=":11065440890_0_1" index="1" allow="private emergency authority army vip passenger hov taxi bus coach delivery truck trailer motorcycle evehicle custom1 custom2" speed="22.22" length="0.29" shape="7127.70,2509.51 7127.39,2509.44"/>
        <lane id=":11065440890_0_2" index="2" allow="private emergency authority army vip passenger hov taxi bus coach delivery truck trailer motorcycle evehicle custom1 custom2" speed="22.22" length="0.29" shape="7128.32,2506.37 7128.06,2506.32"/>
        <lane id=":11065440890_0_3" index="3" allow="private emergency authority army vip passenger hov taxi bus coach delivery truck trailer motorcycle evehicle custom1 custom2" speed="22.22" length="0.29" shape="7128.94,2503.23 7128.73,2503.19"/>
    </edge>
    <edge id=":11070934560_0" function="internal">
        <lane id=":11070934560_0_0" index="0" allow="private emergency authority army vip passenger hov taxi bus coach delivery truck trailer motorcycle evehicle custom1 custom2" speed="18.05" length="0.29" shape="6007.53,2223.67 6007.35,2223.59"/>
        <lane id=":11070934560_0_1" index="1" allow="private emergency authority army vip passenger hov taxi bus coach delivery truck trailer motorcycle evehicle custom1 custom2" speed="18.05" length="0.29" shape="6008.88,2220.77 6008.62,2220.65"/>
        <lane id=":11070934560_0_2" index="2" allow="private emergency authority army vip passenger hov taxi bus coach delivery truck trailer motorcycle evehicle custom1 custom2" speed="18.05" length="0.29" shape="6010.23,2217.87 6009.89,2217.72"/>
    </edge>
    <edge id=":11071195899_0" function="internal">
        <lane id=":11071195899_0_0" index="0" allow="private emergency authority army vip passenger hov taxi bus coach delivery truck trailer motorcycle evehicle custom1 custom2" speed="27.78" length="0.28" shape="2623.95,352.49 2623.67,352.54"/>
    </edge>
    <edge id=":11071280889_0" function="internal">
        <lane id=":11071280889_0_0" index="0" allow="private emergency authority army vip passenger hov taxi bus coach delivery truck trailer motorcycle evehicle custom1 custom2" speed="36.11" length="0.52" shape="7640.64,2527.08 7640.76,2527.28 7640.83,2527.42 7640.90,2527.56 7640.98,2527.78"/>
        <lane id=":11071280889_0_1" index="1" allow="private emergency authority army vip passenger hov taxi bus coach delivery truck trailer motorcycle evehicle custom1 custom2" speed="36.11" length="0.52" shape="7637.89,2528.72 7637.93,2528.78 7637.96,2528.83 7637.98,2528.88 7638.01,2528.95"/>
    </edge>
    <edge id=":1352714332_0" function="internal">
        <lane id=":1352714332_0_0" index="0" allow="private emergency authority army vip passenger hov taxi bus coach delivery truck trailer motorcycle evehicle custom1 custom2" speed="22.22" length="29.10" shape="6249.13,2309.14 6240.27,2306.61 6233.40,2305.55 6227.24,2305.13 6220.51,2304.52"/>
        <lane id=":1352714332_0_1" index="1" allow="private emergency authority army vip passenger hov taxi bus coach delivery truck trailer motorcycle evehicle custom1 custom2" speed="22.22" length="29.32" shape="6249.13,2309.14 6240.28,2306.09 6233.56,2303.95 6227.57,2302.45 6220.93,2301.35"/>
    </edge>
    <edge id=":1352714332_2" function="internal">
        <lane id=":1352714332_2_0" index="0" allow="private emergency authority army vip passenger hov taxi bus coach delivery truck trailer motorcycle evehicle custom1 custom2" speed="22.22" length="29.55" shape="6250.18,2306.11 6221.88,2297.42"/>
        <lane id=":1352714332_2_1" index="1" allow="private emergency authority army vip passenger hov taxi bus coach delivery truck trailer motorcycle evehicle custom1 custom2" speed="22.22" length="29.55" shape="6251.22,2303.09 6222.97,2294.41"/>
        <lane id=":1352714332_2_2" index="2" allow="private emergency authority army vip passenger hov taxi bus coach delivery truck trailer motorcycle evehicle custom1 custom2" speed="22.22" length="29.55" shape="6252.26,2300.06 6224.06,2291.41"/>
    </edge>
    <edge id=":1403932179_0" function="internal">
        <lane id=":1403932179_0_0" index="0" allow="private emergency authority army vip passenger hov taxi bus coach delivery truck trailer motorcycle evehicle custom1 custom2" speed="29.16" length="16.74" shape="7291.04,2544.36 7274.76,2540.47"/>
    </edge>
    <edge id=":1403932179_1" function="internal">
        <lane id=":1403932179_1_0" index="0" allow="private emergency authority army vip passenger hov taxi bus coach delivery truck trailer motorcycle evehicle custom1 custom2" speed="22.22" length="16.77" shape="7291.71,2541.13 7275.35,2537.32"/>
        <lane id=":1403932179_1_1" index="1" allow="private emergency authority army vip passenger hov taxi bus coach delivery truck trailer motorcycle evehicle custom1 custom2" speed="22.22" length="16.77" shape="7292.26,2537.98 7275.93,2534.18"/>
        <lane id=":1403932179_1_2" index="2" allow="private emergency authority army vip passenger hov taxi bus coach delivery truck trailer motorcycle evehicle custom1 custom2" speed="22.22" length="16.77" shape="7292.81,2534.83 7276.52,2531.03"/>
    </edge>
    <edge id=":1404073575_0" function="internal">
        <lane id=":1404073575_0_0" index="0" allow="private emergency authority army vip passenger hov taxi bus coach delivery truck trailer motorcycle evehicle custom1 custom2" speed="27.78" length="0.62" shape="2116.00,653.20 2115.27,653.60"/>
        <lane id=":1404073575_0_1" index="1" allow="private emergency authority army vip passenger hov taxi bus coach delivery truck trailer motorcycle evehicle custom1 custom2" speed="27.78" length="0.62" shape="2114.41,650.42 2113.80,650.75"/>
        <lane id=":1404073575_0_2" index="2" allow="private emergency authority army vip passenger hov taxi bus coach delivery truck trailer motorcycle evehicle custom1 custom2" speed="27.78" length="0.62" shape="2112.81,647.65 2112.33,647.91"/>
        <lane id=":1404073575_0_3" index="3" allow="private emergency authority army vip passenger hov taxi bus coach delivery truck trailer motorcycle evehicle custom1 custom2" speed="27.78" length="0.62" shape="2111.22,644.87 2110.86,645.07"/>
    </edge>
    <edge id=":1404073581_0" function="internal">
        <lane id=":1404073581_0_0" index="0" allow="private emergency authority army vip passenger hov taxi bus coach delivery truck trailer motorcycle evehicle custom1 custom2" speed="27.78" length="0.28" shape="1430.43,799.00 1430.06,798.97"/>
        <lane id=":1404073581_0_1" index="1" allow="private emergency authority army vip passenger hov taxi bus coach delivery truck trailer motorcycle evehicle custom1 custom2" speed="27.78" length="0.28" shape="1430.67,795.81 1430.39,795.79"/>
        <lane id=":1404073581_0_2" index="2" allow="private emergency authority army vip passenger hov taxi bus coach delivery truck trailer motorcycle evehicle custom1 custom2" speed="27.78" length="0.28" shape="1430.92,792.62 1430.72,792.60"/>
    </edge>
    <edge id=":1404073688_0" function="internal">
        <lane id=":1404073688_0_0" index="0" allow="private emergency authority army vip passenger hov taxi bus coach delivery truck trailer motorcycle evehicle custom1 custom2" speed="22.22" length="0.29" shape="7618.54,2592.93 7618.29,2592.89"/>
        <lane id=":1404073688_0_1" index="1" allow="private emergency authority army vip passenger hov taxi bus coach delivery truck trailer motorcycle evehicle custom1 custom2" speed="22.22" length="0.29" shape="7619.06,2589.77 7618.78,2589.73"/>
        <lane id=":1404073688_0_2" index="2" allow="private emergency authority army vip passenger hov taxi bus coach delivery truck trailer motorcycle evehicle custom1 custom2" speed="22.22" length="0.29" shape="7619.59,2586.62 7619.26,2586.56"/>
    </edge>
    <edge id=":1404073714_0" function="internal">
        <lane id=":1404073714_0_0" index="0" allow="private emergency authority army vip passenger hov taxi bus coach delivery truck trailer motorcycle evehicle custom1 custom2" speed="25.00" length="0.32" shape="7925.03,2679.82 7924.94,2679.77"/>
        <lane id=":1404073714_0_1" index="1" allow="private emergency authority army vip passenger hov taxi bus coach delivery truck trailer motorcycle evehicle custom1 custom2" speed="25.00" length="0.32" shape="7926.69,2677.08 7926.41,2676.93"/>
        <lane id=":1404073714_0_2" index="2" allow="private emergency authority army vip passenger hov taxi bus coach delivery truck trailer motorcycle evehicle custom1 custom2" speed="25.00" length="0.32" shape="7928.34,2674.34 7927.88,2674.09"/>
    </edge>
    <edge id=":1663043862_0" function="internal">
        <lane id=":1663043862_0_0" index="0" allow="private emergency authority army vip passenger hov taxi bus coach delivery truck trailer motorcycle evehicle custom1 custom2" speed="36.11" length="0.29" shape="7370.16,2562.09 7369.88,2562.03"/>
    </edge>
    <edge id=":1663043866_0" function="internal">
        <lane id=":1663043866_0_0" index="0" allow="private emergency authority army vip passenger hov taxi bus coach delivery truck trailer motorcycle evehicle custom1 custom2" speed="22.22" length="0.28" shape="7372.05,2555.11 7371.71,2555.06"/>
        <lane id=":1663043866_0_1" index="1" allow="private emergency authority army vip passenger hov taxi bus coach delivery truck trailer motorcycle evehicle custom1 custom2" speed="22.22" length="0.28" shape="7372.54,2551.95 7372.26,2551.91"/>
        <lane id=":1663043866_0_2" index="2" allow="private emergency authority army vip passenger hov taxi bus coach delivery truck trailer motorcycle evehicle custom1 custom2" speed="22.22" length="0.28" shape="7373.02,2548.79 7372.81,2548.75"/>
    </edge>
    <edge id=":1815287892_0" function="internal">
        <lane id=":1815287892_0_0" index="0" allow="private emergency authority army vip passenger hov taxi bus coach delivery truck trailer motorcycle evehicle custom1 custom2" speed="22.22" length="0.27" shape="7802.86,2628.66 7802.53,2628.56"/>
        <lane id=":1815287892_0_1" index="1" allow="private emergency authority army vip passenger hov taxi bus coach delivery truck trailer motorcycle evehicle custom1 custom2" speed="22.22" length="0.27" shape="7803.75,2625.59 7803.49,2625.51"/>
        <lane id=":1815287892_0_2" index="2" allow="private emergency authority army vip passenger hov taxi bus coach delivery truck trailer motorcycle evehicle custom1 custom2" speed="22.22" length="0.27" shape="7804.64,2622.51 7804.45,2622.46"/>
    </edge>
    <edge id=":1996286574_0" function="internal">
        <lane id=":1996286574_0_0" index="0" allow="private emergency authority army vip passenger hov taxi bus coach delivery truck trailer motorcycle evehicle custom1 custom2" speed="31.95" length="0.30" shape="3588.90,754.66 3588.65,754.49"/>
        <lane id=":1996286574_0_1" index="1" allow="private emergency authority army vip passenger hov taxi bus coach delivery truck trailer motorcycle evehicle custom1 custom2" speed="31.95" length="0.30" shape="3590.71,752.03 3590.47,751.85"/>
        <lane id=":1996286574_0_2" index="2" allow="private emergency authority army vip passenger hov taxi bus coach delivery truck trailer motorcycle evehicle custom1 custom2" speed="31.95" length="0.30" shape="3592.53,749.39 3592.29,749.22"/>
    </edge>
    <edge id=":2402815434_0" function="internal">
        <lane id=":2402815434_0_0" index="0" allow="private emergency authority army vip passenger hov taxi bus coach delivery truck trailer motorcycle evehicle custom1 custom2" speed="21.74" length="59.55" shape="2004.25,711.41 1996.42,719.06 1990.57,730.43 1986.70,745.52 1984.79,764.33"/>
        <lane id=":2402815434_0_1" index="1" allow="private emergency authority army vip passenger hov taxi bus coach delivery truck trailer motorcycle evehicle custom1 custom2" speed="21.98" length="59.55" shape="2004.25,711.41 1994.98,719.87 1988.12,731.48 1983.66,746.26 1981.60,764.19"/>
        <lane id=":2402815434_0_2" index="2" allow="private emergency authority army vip passenger hov taxi bus coach delivery truck trailer motorcycle evehicle custom1 custom2" speed="22.24" length="59.55" shape="2004.25,711.41 1993.55,720.67 1985.67,732.53 1980.63,746.99 1978.40,764.05"/>
    </edge>
    <edge id=":2402884173_0" function="internal">
        <lane id=":2402884173_0_0" index="0" allow="private emergency authority army vip passenger hov taxi bus coach delivery truck trailer motorcycle evehicle custom1 custom2" speed="27.78" length="0.30" shape="1735.46,784.87 1735.18,784.93"/>
        <lane id=":2402884173_0_1" index="1" allow="private emergency authority army vip passenger hov taxi bus coach delivery truck trailer motorcycle evehicle custom1 custom2" speed="27.78" length="0.30" shape="1734.90,781.72 1734.60,781.78"/>
        <lane id=":2402884173_0_2" index="2" allow="private emergency authority army vip passenger hov taxi bus coach delivery truck trailer motorcycle evehicle custom1 custom2" speed="27.78" length="0.30" shape="1734.34,778.57 1734.03,778.63"/>
    </edge>
    <edge id=":2402884176_0" function="internal">
        <lane id=":2402884176_0_0" index="0" allow="private emergency authority army vip passenger hov taxi bus coach delivery truck trailer motorcycle evehicle custom1 custom2" speed="27.78" length="0.30" shape="1412.45,797.15 1412.16,797.12"/>
        <lane id=":2402884176_0_1" index="1" allow="private emergency authority army vip passenger hov taxi bus coach delivery truck trailer motorcycle evehicle custom1 custom2" speed="27.78" length="0.30" shape="1412.78,793.97 1412.48,793.93"/>
        <lane id=":2402884176_0_2" index="2" allow="private emergency authority army vip passenger hov taxi bus coach delivery truck trailer motorcycle evehicle custom1 custom2" speed="27.78" length="0.30" shape="1413.11,790.78 1412.81,790.75"/>
    </edge>
    <edge id=":2402884178_0" function="internal">
        <lane id=":2402884178_0_0" index="0" allow="private emergency authority army vip passenger hov taxi bus coach delivery truck trailer motorcycle evehicle custom1 custom2" speed="27.78" length="0.29" shape="1411.98,802.16 1411.70,802.12"/>
    </edge>
    <edge id=":3142728304_0" function="internal">
        <lane id=":3142728304_0_0" index="0" allow="private emergency authority army vip passenger hov taxi bus coach delivery truck trailer motorcycle evehicle custom1 custom2" speed="29.16" length="0.30" shape="3672.99,812.66 3672.74,812.49"/>
        <lane id=":3142728304_0_1" index="1" allow="private emergency authority army vip passenger hov taxi bus coach delivery truck trailer motorcycle evehicle custom1 custom2" speed="29.16" length="0.30" shape="3674.80,810.02 3674.56,809.85"/>
        <lane id=":3142728304_0_2" index="2" allow="private emergency authority army vip passenger hov taxi bus coach delivery truck trailer motorcycle evehicle custom1 custom2" speed="29.16" length="0.30" shape="3676.62,807.39 3676.37,807.22"/>
    </edge>
    <edge id=":322017876_0" function="internal">
        <lane id=":322017876_0_0" index="0" allow="private emergency authority army vip passenger hov taxi bus coach delivery truck trailer motorcycle evehicle custom1 custom2" speed="22.22" length="0.10" shape="4063.83,1087.84 4063.83,1087.84"/>
    </edge>
    <edge id=":322017909_0" function="internal">
        <lane id=":322017909_0_0" index="0" allow="private emergency authority army vip passenger hov taxi bus coach delivery truck trailer motorcycle evehicle custom1 custom2" speed="27.78" length="49.83" shape="2893.89,357.69 2883.44,353.47 2868.78,348.53 2854.86,344.30 2846.65,342.24"/>
        <lane id=":322017909_0_1" index="1" allow="private emergency authority army vip passenger hov taxi bus coach delivery truck trailer motorcycle evehicle custom1 custom2" speed="27.78" length="49.83" shape="2894.92,354.63 2884.31,350.89 2869.29,347.00 2855.02,343.82 2846.65,342.24"/>
    </edge>
    <edge id=":322070772_0" function="internal">
        <lane id=":322070772_0_0" index="0" allow="private emergency authority army vip passenger hov taxi bus coach delivery truck trailer motorcycle evehicle custom1 custom2" speed="31.95" length="0.30" shape="1429.86,804.19 1429.56,804.15"/>
    </edge>
    <edge id=":322070776_0" function="internal">
        <lane id=":322070776_0_0" index="0" allow="private emergency authority army vip passenger hov taxi bus coach delivery truck trailer motorcycle evehicle custom1 custom2" speed="27.78" length="3.92" shape="1365.46,795.89 1364.33,795.62 1363.55,795.47 1362.76,795.36 1361.60,795.22"/>
    </edge>
    <edge id=":322070776_1" function="internal">
        <lane id=":322070776_1_0" index="0" allow="private emergency authority army vip passenger hov taxi bus coach delivery truck trailer motorcycle evehicle custom1 custom2" speed="27.78" length="3.54" shape="1365.65,792.41 1361.99,792.05"/>
        <lane id=":322070776_1_1" index="1" allow="private emergency authority army vip passenger hov taxi bus coach delivery truck trailer motorcycle evehicle custom1 custom2" speed="27.78" length="3.54" shape="1365.91,789.22 1362.38,788.87"/>
        <lane id=":322070776_1_2" index="2" allow="private emergency authority army vip passenger hov taxi bus coach delivery truck trailer motorcycle evehicle custom1 custom2" speed="27.78" length="3.54" shape="1366.17,786.03 1362.77,785.70"/>
    </edge>
    <edge id=":322107952_0" function="internal">
        <lane id=":322107952_0_0" index="0" allow="private emergency authority army vip passenger hov taxi bus coach delivery truck trailer motorcycle evehicle custom1 custom2" speed="18.95" length="48.76" shape="3027.64,396.27 3016.62,395.78 3005.85,398.54 2995.33,404.56 2985.05,413.82"/>