<?xml version="1.0" encoding="UTF-8"?>

<!-- generated on 2024-06-06 16:36:01 by Eclipse SUMO sumo Version v1_15_0+3072-a493b9138de
<configuration xmlns:xsi="http://www.w3.org/2001/XMLSchema-instance" xsi:noNamespaceSchemaLocation="http://sumo.dlr.de/xsd/sumoConfiguration.xsd">

    <input>
        <net-file value="example_scenario/a20.net.xml"/>
        <route-files value="example_scenario/a20.rou.xml"/>
        <additional-files value="example_scenario/a20.add.xml"/>
    </input>

    <time>
        <step-length value="1.0"/>
    </time>

    <traci_server>
        <remote-port value="51594"/>
    </traci_server>

    <random_number>
        <seed value="1"/>
    </random_number>

</configuration>
-->

<e3Detector xmlns:xsi="http://www.w3.org/2001/XMLSchema-instance" xsi:noNamespaceSchemaLocation="http://sumo.dlr.de/xsd/det_e3_file.xsd">
   <interval begin="0.00" end="300.00" id="cw_ramp_queue" meanTravelTime="119.28" meanOverlapTravelTime="123.31" meanSpeed="3.23" meanHaltsPerVehicle="11.80" meanTimeLoss="116.33" vehicleSum="76" meanSpeedWithin="1.61" meanHaltsPerVehicleWithin="8.96" meanDurationWithin="82.19" vehicleSumWithin="50" meanIntervalSpeedWithin="1.61" meanIntervalHaltsPerVehicleWithin="8.96" meanIntervalDurationWithin="82.19" meanTimeLossWithin="77.15"/>
   <interval begin="300.00" end="500.00" id="cw_ramp_queue" meanTravelTime="166.22" meanOverlapTravelTime="171.35" meanSpeed="1.48" meanHaltsPerVehicle="18.00" meanTimeLoss="164.15" vehicleSum="55" meanSpeedWithin="1.36" meanHaltsPerVehicleWithin="9.36" meanDurationWithin="94.62" vehicleSumWithin="44" meanIntervalSpeedWithin="1.36" meanIntervalHaltsPerVehicleWithin="9.36" meanIntervalDurationWithin="94.62" meanTimeLossWithin="89.77"/>
</e3Detector>
